*version 8.0 702079514
u 134
U? 5
R? 2
L? 4
C? 2
V? 2
PM? 3
? 5
D? 3
@libraries
@analysis
.TRAN 1 0 0 0
+0 0.1M
+1 5M
@targets
@attributes
@translators
a 0 u 13 0 0 0 hln 100 TANGO=PCB
a 0 u 13 0 0 0 hln 100 SCICARDS=PCB
a 0 u 13 0 0 0 hln 100 PROTEL=PCB
a 0 u 13 0 0 0 hln 100 PCBOARDS=PCB
a 0 u 13 0 0 0 hln 100 PCAD=PCB
a 0 u 13 0 0 0 hln 100 PADS=PCB
a 0 u 13 0 0 0 hln 100 ORCAD=PCB
a 0 u 13 0 0 0 hln 100 EDIF=PCB
a 0 u 13 0 0 0 hln 100 CADSTAR=PCB
a 0 u 13 0 0 0 hln 100 PSPICE=PSPICE
a 0 u 13 0 0 0 hln 100 XILINX=XILINX
@setup
unconnectedPins 0
connectViaLabel 0
connectViaLocalLabels 0
NoStim4ExtIFPortsWarnings 1
AutoGenStim4ExtIFPorts 1
@index
pageloc 1 0 567 
@status
n 0 99:05:27:07:15:56;930447956 e 
s 2833 99:05:27:07:15:57;930447957 e 
c 100:02:07:23:26:18;952451778
*page 1 0 970 720 iA
@ports
@parts
part 1 titleblk 970 720 h
a 1 s 13 0 350 10 hcn 100 PAGESIZE=A
a 1 s 13 0 180 60 hcn 100 PAGETITLE=
a 1 s 13 0 340 95 hrn 100 PAGECOUNT=1
a 1 s 13 0 300 95 hrn 100 PAGENO=1
@conn
@junction
@attributes
a 0 s 0:13 0 0 0 hln 100 PAGETITLE=
a 0 s 0:13 0 0 0 hln 100 PAGENO=1
a 0 s 0:13 0 0 0 hln 100 PAGESIZE=A
a 0 s 0:13 0 0 0 hln 100 PAGECOUNT=1
@graphics
t 132 t 5 50 194 120 220 0 10
Fig. 13.14
t 133 t 5 30 264 142 282 0 23
(Exercise for Students)
t 131 t 5 30 220 240 250 0 27 d_info:,,,,,,,,,,,,,14, 
Study of Step-Down  Chopper
