*version 8.0 161582312
u 4
IN? 2
LIB? 2
@libraries
@analysis
.TRAN 1 0 0 0
+0 0.1US
+1 100US
@targets
@attributes
@translators
a 0 u 13 0 0 0 hln 100 TANGO=PCB
a 0 u 13 0 0 0 hln 100 SCICARDS=PCB
a 0 u 13 0 0 0 hln 100 PROTEL=PCB
a 0 u 13 0 0 0 hln 100 PCBOARDS=PCB
a 0 u 13 0 0 0 hln 100 PCAD=PCB
a 0 u 13 0 0 0 hln 100 PADS=PCB
a 0 u 13 0 0 0 hln 100 ORCAD=PCB
a 0 u 13 0 0 0 hln 100 EDIF=PCB
a 0 u 13 0 0 0 hln 100 CADSTAR=PCB
a 0 u 13 0 0 0 hln 100 PSPICE=PSPICE
a 0 u 13 0 0 0 hln 100 XILINX=XILINX
@setup
unconnectedPins 0
connectViaLabel 0
connectViaLocalLabels 0
NoStim4ExtIFPortsWarnings 1
AutoGenStim4ExtIFPorts 1
@index
pageloc 1 0 684 
@status
n 0 99:05:08:21:39:55;928858195 e 
s 0 99:05:08:22:16:22;928860382 e 
*page 1 0 970 720 iA
@ports
@parts
part 2 INCLUDE 100 110 h
a 0 a 0:13 0 0 0 hln 100 PKGREF=IN1
a 1 ap 0 0 30 0 hcn 100 REFDES=IN1
a 0 u 13 0 54 9 hln 100 FILENAME=BLOCK_OSCC.PRN
part 3 LIB 100 130 h
a 0 a 0:13 0 0 0 hln 100 PKGREF=LIB1
a 1 ap 0 0 30 0 hcn 100 REFDES=LIB1
a 0 u 13 0 46 9 hln 100 FILENAME=C:\MSIMEV_8\LIB\NOM.LIB
part 1 titleblk 970 720 h
a 1 s 13 0 350 10 hcn 100 PAGESIZE=A
a 1 s 13 0 180 60 hcn 100 PAGETITLE=
a 1 s 13 0 300 95 hrn 100 PAGENO=1
a 1 s 13 0 340 95 hrn 100 PAGECOUNT=1
@conn
@junction
@attributes
a 0 s 0:13 0 0 0 hln 100 PAGETITLE=
a 0 s 0:13 0 0 0 hln 100 PAGENO=1
a 0 s 0:13 0 0 0 hln 100 PAGESIZE=A
a 0 s 0:13 0 0 0 hln 100 PAGECOUNT=1
@graphics
