*version 8.0 552847435
u 191
V? 4
C? 9
L? 2
R? 6
D? 3
? 4
PM? 3
@libraries
@analysis
.TRAN 1 0 0 0
+0 0.1u
+1 10ms
@targets
@attributes
@translators
a 0 u 13 0 0 0 hln 100 TANGO=PCB
a 0 u 13 0 0 0 hln 100 SCICARDS=PCB
a 0 u 13 0 0 0 hln 100 PROTEL=PCB
a 0 u 13 0 0 0 hln 100 PCBOARDS=PCB
a 0 u 13 0 0 0 hln 100 PCAD=PCB
a 0 u 13 0 0 0 hln 100 PADS=PCB
a 0 u 13 0 0 0 hln 100 ORCAD=PCB
a 0 u 13 0 0 0 hln 100 EDIF=PCB
a 0 u 13 0 0 0 hln 100 CADSTAR=PCB
a 0 u 13 0 0 0 hln 100 PSPICE=PSPICE
a 0 u 13 0 0 0 hln 100 XILINX=XILINX
@setup
unconnectedPins 0
connectViaLabel 0
connectViaLocalLabels 0
NoStim4ExtIFPortsWarnings 0
AutoGenStim4ExtIFPorts 1
@index
pageloc 1 0 7861 
@status
n 0 100:02:08:03:32:15;952466535 e 
s 2833 100:02:08:03:32:47;952466567 e 
c 100:02:08:03:35:02;952466702
*page 1 0 297 210 ma
@ports
port 108 EGND 340 480 h
port 101 EGND 480 490 h
@parts
part 14 D1N4148 430 270 h
a 0 a 0:13 0 0 0 hln 100 PKGREF=D1
a 0 ap 9 0 15 0 hln 100 REFDES=D1
part 15 D1N4148 460 400 u
a 0 sp 13 0 37 31 hln 100 MODEL=D1N4148
a 0 a 0:13 0 0 0 hln 100 PKGREF=D2
a 0 ap 9 0 15 0 hln 100 REFDES=D2
part 10 L 370 440 h
a 0 u 13 0 15 25 hln 100 VALUE=33mH
a 0 sp 0 0 0 10 hlb 100 PART=L
a 0 s 0:13 0 0 0 hln 100 PKGTYPE=L2012C
a 0 s 0:13 0 0 0 hln 100 GATE=
a 0 a 0:13 0 0 0 hln 100 PKGREF=L1
a 0 ap 9 0 15 0 hln 100 REFDES=L1
part 4 C 360 320 d
a 0 u 13 0 7 51 hln 100 VALUE=0.022uF
a 0 sp 0 0 0 10 hlb 100 PART=C
a 0 s 0:13 0 0 0 hln 100 PKGTYPE=CK05
a 0 s 0:13 0 0 0 hln 100 GATE=
a 0 a 0:13 0 0 0 hln 100 PKGREF=C1
a 0 ap 9 0 15 0 hln 100 REFDES=C1
part 5 C 410 330 d
a 0 u 13 0 31 -1 hln 100 VALUE=0.01uF
a 0 sp 0 0 0 10 hlb 100 PART=C
a 0 s 0:13 0 0 0 hln 100 PKGTYPE=CK05
a 0 s 0:13 0 0 0 hln 100 GATE=
a 0 a 0:13 0 0 0 hln 100 PKGREF=C2
a 0 ap 9 0 15 0 hln 100 REFDES=C2
part 12 R 570 340 d
a 0 u 13 0 15 25 hln 100 VALUE=10k
a 0 sp 0 0 0 10 hlb 100 PART=R
a 0 s 0:13 0 0 0 hln 100 PKGTYPE=RC05
a 0 s 0:13 0 0 0 hln 100 GATE=
a 0 a 0:13 0 0 0 hln 100 PKGREF=R2
a 0 ap 9 0 15 0 hln 100 REFDES=R2
part 11 R 570 270 d
a 0 u 13 0 15 25 hln 100 VALUE=10k
a 0 sp 0 0 0 10 hlb 100 PART=R
a 0 s 0:13 0 0 0 hln 100 PKGTYPE=RC05
a 0 s 0:13 0 0 0 hln 100 GATE=
a 0 a 0:13 0 0 0 hln 100 PKGREF=R1
a 0 ap 9 0 15 0 hln 100 REFDES=R1
part 13 C 620 320 d
a 0 u 13 0 31 5 hln 100 VALUE=0.1uF
a 0 sp 0 0 0 10 hlb 100 PART=C
a 0 s 0:13 0 0 0 hln 100 PKGTYPE=CK05
a 0 s 0:13 0 0 0 hln 100 GATE=
a 0 a 0:13 0 0 0 hln 100 PKGREF=C7
a 0 ap 9 0 15 0 hln 100 REFDES=C7
part 7 C 510 340 d
a 0 u 13 0 33 1 hln 100 VALUE=10n
a 0 sp 0 0 0 10 hlb 100 PART=C
a 0 s 0:13 0 0 0 hln 100 PKGTYPE=CK05
a 0 s 0:13 0 0 0 hln 100 GATE=
a 0 a 0:13 0 0 0 hln 100 PKGREF=C4
a 0 ap 9 0 15 0 hln 100 REFDES=C4
part 6 C 510 270 d
a 0 u 13 0 31 3 hln 100 VALUE=10n
a 0 sp 0 0 0 10 hlb 100 PART=C
a 0 s 0:13 0 0 0 hln 100 PKGTYPE=CK05
a 0 s 0:13 0 0 0 hln 100 GATE=
a 0 a 0:13 0 0 0 hln 100 PKGREF=C3
a 0 ap 9 0 15 0 hln 100 REFDES=C3
part 8 C 480 460 d
a 0 u 13 0 19 49 hln 100 VALUE=47uF
a 0 sp 0 0 0 10 hlb 100 PART=C
a 0 s 0:13 0 0 0 hln 100 PKGTYPE=CK05
a 0 s 0:13 0 0 0 hln 100 GATE=
a 0 a 0:13 0 0 0 hln 100 PKGREF=C5
a 0 ap 9 0 15 0 hln 100 REFDES=C5
part 113 R 420 520 h
a 0 u 13 0 5 29 hln 100 VALUE=100meg
a 0 sp 0 0 0 10 hlb 100 PART=R
a 0 s 0:13 0 0 0 hln 100 PKGTYPE=RC05
a 0 s 0:13 0 0 0 hln 100 GATE=
a 0 a 0:13 0 0 0 hln 100 PKGREF=R5
a 0 ap 9 0 15 0 hln 100 REFDES=R5
part 105 R 300 480 h
a 0 u 13 0 -11 29 hln 100 VALUE=100meg
a 0 sp 0 0 0 10 hlb 100 PART=R
a 0 s 0:13 0 0 0 hln 100 PKGTYPE=RC05
a 0 s 0:13 0 0 0 hln 100 GATE=
a 0 a 0:13 0 0 0 hln 100 PKGREF=R4
a 0 ap 9 0 15 0 hln 100 REFDES=R4
part 127 PARAM 730 330 h
a 0 u 13 0 88 24 hlb 100 VALUE1=10
a 0 a 0:13 0 0 0 hln 100 PKGREF=PM2
a 1 ap 0 0 10 -2 hcn 100 REFDES=PM2
a 0 u 13 0 0 20 hln 100 NAME1=MOD_INDEX
part 3 VSFFM 300 350 H
a 1 ap 9 0 32 22 hcn 100 REFDES=V2
a 1 u 0 0 0 0 hcn 100 VOFF=0
a 0 a 0:13 0 0 0 hln 100 PKGREF=V2
a 1 u 0 0 0 0 hcn 100 FC={FREQ_CARRIER}
a 1 u 0 0 0 0 hcn 100 VAMPL={VFM_AMPL}
a 1 u 0 0 0 0 hcn 100 MOD={MOD_INDEX}
a 1 u 0 0 0 0 hcn 100 FM={FREQ_MOD}
part 125 VSFFM 300 280 H
a 0 x 0:13 0 0 0 hln 100 PKGREF=V1
a 1 xp 9 0 20 10 hcn 100 REFDES=V1
a 1 u 0 0 0 0 hcn 100 VOFF=0
a 1 u 0 0 0 0 hcn 100 FC={FREQ_CARRIER}
a 1 u 0 0 0 0 hcn 100 VAMPL={VFM_AMPL}
a 1 u 0 0 0 0 hcn 100 MOD={MOD_INDEX}
a 1 u 0 0 0 0 hcn 100 FM={FREQ_MOD}
part 126 PARAM 730 270 h
a 0 a 0:13 0 0 0 hln 100 PKGREF=PM1
a 1 ap 0 0 10 -2 hcn 100 REFDES=PM1
a 0 u 13 0 0 20 hln 100 NAME1=VFM_AMPL
a 0 u 13 0 0 30 hln 100 NAME2=FREQ_CARRIER
a 0 u 13 0 0 40 hln 100 NAME3=FREQ_MOD
a 0 u 13 0 94 34 hlb 100 VALUE2=100k
a 0 u 13 0 96 44 hlb 100 VALUE3=1k
a 0 u 13 0 88 20 hlb 100 VALUE1=1V
part 65 R 530 440 h
a 0 sp 0 0 0 10 hlb 100 PART=R
a 0 s 0:13 0 0 0 hln 100 PKGTYPE=RC05
a 0 s 0:13 0 0 0 hln 100 GATE=
a 0 a 0:13 0 0 0 hln 100 PKGREF=R3
a 0 ap 9 0 15 0 hln 100 REFDES=R3
a 0 u 13 0 13 29 hln 100 VALUE=1K
part 130 C 220 340 h
a 0 sp 0 0 0 10 hlb 100 PART=C
a 0 s 0:13 0 0 0 hln 100 PKGTYPE=CK05
a 0 s 0:13 0 0 0 hln 100 GATE=
a 0 a 0:13 0 0 0 hln 100 PKGREF=C8
a 0 ap 9 0 15 0 hln 100 REFDES=C8
a 0 u 13 0 -5 37 hln 100 VALUE=0.22U
part 9 C 610 450 d
a 0 ap 9 0 9 -6 hln 100 REFDES=C6
a 0 sp 0 0 0 10 hlb 100 PART=C
a 0 s 0:13 0 0 0 hln 100 PKGTYPE=CK05
a 0 s 0:13 0 0 0 hln 100 GATE=
a 0 a 0:13 0 0 0 hln 100 PKGREF=C6
a 0 u 13 0 23 1 hln 100 VALUE=0.047NF
part 1 titleblk 1188 840 h
a 1 s 13 0 350 10 hcn 100 PAGESIZE=A4
a 1 s 13 0 180 60 hcn 100 PAGETITLE=
a 1 s 13 0 340 95 hrn 100 PAGECOUNT=1
a 1 s 13 0 300 95 hrn 100 PAGENO=1
part 104 nodeMarker 610 440 h
a 0 s 0 0 0 0 hln 100 PROBEVAR=C6:1
a 0 s 0 0 0 0 hln 100 PROBEVAR=
a 0 s 0 0 0 0 hln 100 PROBEVAR=
a 0 a 0 0 4 22 hlb 100 LABEL=2
part 128 nodeMarker 210 270 h
a 0 s 0 0 0 0 hln 100 PROBEVAR=V1:+
a 0 s 0 0 0 0 hln 100 PROBEVAR=
a 0 s 0 0 0 0 hln 100 PROBEVAR=
a 0 a 0 0 4 22 hlb 100 LABEL=3
@conn
w 21
s 250 410 300 410 137
s 300 410 300 480 139
s 250 340 250 410 135
s 300 400 300 410 106
s 410 400 430 400 35
s 410 360 410 400 33
s 360 350 360 400 27
s 360 400 410 400 29
s 300 400 360 400 22
s 300 390 300 400 20
w 66
s 370 440 320 440 61
s 320 440 320 340 59
s 320 340 300 340 56
s 300 340 300 350 67
s 300 320 300 340 54
w 122
s 460 490 480 490 123
s 480 490 610 490 76
s 610 490 610 480 78
s 460 520 460 490 121
w 43
s 410 520 420 520 119
s 410 420 410 520 117
s 480 420 410 420 114
s 480 420 480 460 116
s 510 330 480 330 92
s 510 330 510 300 112
s 480 330 480 420 95
s 510 340 510 330 94
w 73
s 610 440 610 450 74
s 570 440 610 440 72
w 69
s 430 440 530 440 68
w 49
s 460 400 510 400 50
s 510 370 510 400 80
s 570 380 570 400 85
s 570 400 620 400 88
s 510 400 570 400 83
s 620 400 620 350 52
w 47
s 570 340 570 310 86
w 37
s 620 270 620 320 40
s 570 270 620 270 39
s 510 270 570 270 38
s 460 270 510 270 36
w 150
s 220 340 220 270 131
s 220 270 300 270 162
s 360 270 360 320 24
s 410 270 410 330 30
s 410 270 430 270 32
s 360 270 410 270 26
s 300 270 360 270 166
s 300 280 300 270 16
s 210 270 220 270 190
@junction
j 480 490
+ p 8 2
+ s 101
j 340 480
+ p 105 2
+ s 108
j 300 480
+ p 105 1
+ w 21
j 250 340
+ p 130 2
+ w 21
j 300 410
+ w 21
+ w 21
j 410 400
+ w 21
+ w 21
j 430 400
+ p 15 2
+ w 21
j 410 360
+ p 5 2
+ w 21
j 360 350
+ p 4 2
+ w 21
j 360 400
+ w 21
+ w 21
j 300 390
+ p 3 -
+ w 21
j 300 400
+ w 21
+ w 21
j 220 340
+ p 130 1
+ w 150
j 220 270
+ w 150
+ w 150
j 360 320
+ p 4 1
+ w 150
j 410 330
+ p 5 1
+ w 150
j 430 270
+ p 14 1
+ w 150
j 360 270
+ w 150
+ w 150
j 410 270
+ w 150
+ w 150
j 300 280
+ p 125 +
+ w 150
j 300 270
+ w 150
+ w 150
j 370 440
+ p 10 1
+ w 66
j 300 350
+ p 3 +
+ w 66
j 300 320
+ p 125 -
+ w 66
j 300 340
+ w 66
+ w 66
j 480 490
+ p 8 2
+ w 122
j 480 490
+ s 101
+ w 122
j 610 480
+ p 9 2
+ w 122
j 460 520
+ p 113 2
+ w 122
j 420 520
+ p 113 1
+ w 43
j 480 460
+ p 8 1
+ w 43
j 510 300
+ p 6 2
+ w 43
j 480 420
+ w 43
+ w 43
j 510 340
+ p 7 1
+ w 43
j 510 330
+ w 43
+ w 43
j 610 450
+ p 9 1
+ w 73
j 610 440
+ p 104 pin1
+ w 73
j 570 440
+ p 65 2
+ w 73
j 430 440
+ p 10 2
+ w 69
j 530 440
+ p 65 1
+ w 69
j 460 400
+ p 15 1
+ w 49
j 510 370
+ p 7 2
+ w 49
j 570 380
+ p 12 2
+ w 49
j 510 400
+ w 49
+ w 49
j 570 400
+ w 49
+ w 49
j 620 350
+ p 13 2
+ w 49
j 570 340
+ p 12 1
+ w 47
j 570 310
+ p 11 2
+ w 47
j 620 320
+ p 13 1
+ w 37
j 570 270
+ p 11 1
+ w 37
j 510 270
+ p 6 1
+ w 37
j 460 270
+ p 14 2
+ w 37
j 210 270
+ p 128 pin1
+ w 150
@attributes
a 0 s 0:13 0 0 0 hln 100 PAGETITLE=
a 0 s 0:13 0 0 0 hln 100 PAGENO=1
a 0 s 0:13 0 0 0 hln 100 PAGESIZE=A4
a 0 s 0:13 0 0 0 hln 100 PAGECOUNT=1
@graphics
t 140 t 5 280 640 480 610 0 24 d_info:,,,,,,,,,,,,,14, 
 Study of RATIO DETECTOR
t 141 t 5 290 584 338 602 0 9
Fig. 12.6
t 142 t 5 320 635 440 660 0 26
(Exercise for the stuents)
