*version 8.0 852685853
u 275
C? 4
R? 8
X? 2
V? 3
D? 8
? 6
PM? 2
E? 3
@libraries
@analysis
.TRAN 1 0 0 0
+0 0.1ms
+1 100MS
.STEP 0 3 4
+ 0 CVAR
+ -1 1N  0.01U 0.1U 0.22U 0.47U  
@targets
@attributes
@translators
a 0 u 13 0 0 0 hln 100 TANGO=PCB
a 0 u 13 0 0 0 hln 100 SCICARDS=PCB
a 0 u 13 0 0 0 hln 100 PROTEL=PCB
a 0 u 13 0 0 0 hln 100 PCBOARDS=PCB
a 0 u 13 0 0 0 hln 100 PCAD=PCB
a 0 u 13 0 0 0 hln 100 PADS=PCB
a 0 u 13 0 0 0 hln 100 ORCAD=PCB
a 0 u 13 0 0 0 hln 100 EDIF=PCB
a 0 u 13 0 0 0 hln 100 CADSTAR=PCB
a 0 u 13 0 0 0 hln 100 PSPICE=PSPICE
a 0 u 13 0 0 0 hln 100 XILINX=XILINX
@setup
unconnectedPins 0
connectViaLabel 0
connectViaLocalLabels 0
NoStim4ExtIFPortsWarnings 1
AutoGenStim4ExtIFPorts 1
@index
pageloc 1 0 4953 
@status
n 0 99:06:25:19:44:45;932912085 e 
s 0 99:06:25:19:44:47;932912087 e 
c 99:06:25:19:45:33;932912133
*page 1 0 970 720 iA
@ports
port 85 EGND 370 420 h
port 86 GND_EARTH 390 250 h
port 87 EGND 490 390 h
@parts
part 77 C 300 390 d
a 0 sp 0 0 0 10 hlb 100 PART=C
a 0 s 0 0 0 0 hln 100 PKGTYPE=CK05
a 0 s 0 0 0 0 hln 100 GATE=
a 0 u 13 0 27 -1 hln 100 VALUE=0.01u
a 0 a 0 0 0 0 hln 100 PKGREF=C1
a 0 ap 9 0 15 0 hln 100 REFDES=C1
part 179 D1N4148 210 320 d
a 0 x 9 0 17 44 hln 100 REFDES=D1
a 0 s 13 0 37 61 hln 100 MODEL=D1N4148
a 0 x 0:13 0 0 0 hln 100 PKGREF=D1
part 139 R 260 260 d
a 0 sp 0 0 0 10 hlb 100 PART=R
a 0 s 0 0 0 0 hln 100 PKGTYPE=RC05
a 0 s 0 0 0 0 hln 100 GATE=
a 0 a 0 0 0 0 hln 100 PKGREF=R3
a 0 ap 9 0 15 32 hln 100 REFDES=R3
a 0 u 13 0 27 39 hln 100 VALUE=15k
part 79 R 260 350 v
a 0 sp 0 0 0 10 hlb 100 PART=R
a 0 s 0 0 0 0 hln 100 PKGTYPE=RC05
a 0 s 0 0 0 0 hln 100 GATE=
a 0 ap 9 0 23 2 hln 100 REFDES=R1
a 0 a 0 0 0 0 hln 100 PKGREF=R1
a 0 u 13 0 9 3 hln 100 VALUE=15k
part 83 C 260 370 d
a 0 u 0 0 0 0 hln 100 IC=10
a 0 sp 0 0 0 10 hlb 100 PART=C
a 0 s 0 0 0 0 hln 100 PKGTYPE=CK05
a 0 s 0 0 0 0 hln 100 GATE=
a 0 a 0 0 0 0 hln 100 PKGREF=C2
a 0 ap 9 0 15 0 hln 100 REFDES=C2
a 0 u 13 0 25 49 hln 100 VALUE=1u
part 80 555D 320 330 h
a 0 s 11 0 66 100 hlb 100 PART=555D
a 0 s 0 0 0 0 hln 100 PKGTYPE=DIP8
a 0 s 0 0 0 0 hln 100 GATE=
a 1 a 9 0 70 8 hln 100 REFDES=X1
a 0 a 0 0 0 0 hln 100 PKGREF=X1
part 82 VDC 370 290 u
a 0 sp 0 0 22 37 hln 100 PART=VDC
a 0 a 0 0 0 0 hln 100 PKGREF=V1
a 1 ap 9 0 -16 21 hcn 100 REFDES=V1
a 1 u 13 0 -17 8 hcn 100 DC=5V
part 180 C 450 350 h
a 0 sp 0 0 0 10 hlb 100 PART=C
a 0 s 0:13 0 0 0 hln 100 PKGTYPE=CK05
a 0 s 0:13 0 0 0 hln 100 GATE=
a 0 a 0:13 0 0 0 hln 100 PKGREF=C3
a 0 ap 9 0 15 0 hln 100 REFDES=C3
a 0 u 13 0 -5 29 hln 100 VALUE={CVAR}
part 81 R 490 350 d
a 0 sp 0 0 0 10 hlb 100 PART=R
a 0 s 0 0 0 0 hln 100 PKGTYPE=RC05
a 0 s 0 0 0 0 hln 100 GATE=
a 0 ap 9 0 15 0 hln 100 REFDES=R2
a 0 a 0 0 0 0 hln 100 PKGREF=R2
a 0 u 13 0 33 -5 hln 100 VALUE=10k
part 188 PARAM 490 270 h
a 0 a 0:13 0 0 0 hln 100 PKGREF=PM1
a 1 ap 0 0 10 -2 hcn 100 REFDES=PM1
a 0 u 13 0 0 20 hln 100 NAME1=CVAR
a 0 u 13 0 50 22 hlb 100 VALUE1=0.047U
part 265 D1N4002 530 330 h
a 0 a 0:13 0 0 0 hln 100 PKGREF=D6
a 0 sp 13 0 35 1 hln 100 MODEL=D1N4002
a 0 ap 9 0 47 -14 hln 100 REFDES=D6
part 266 D1N4002 560 360 u
a 0 a 0:13 0 0 0 hln 100 PKGREF=D7
a 0 ap 9 0 15 0 hln 100 REFDES=D7
a 0 sp 13 0 23 -15 hln 100 MODEL=D1N4002
part 1 titleblk 970 720 h
a 1 s 13 0 350 10 hcn 100 PAGESIZE=A
a 1 s 13 0 180 60 hcn 100 PAGETITLE=
a 1 s 13 0 340 95 hrn 100 PAGECOUNT=1
a 1 s 13 0 300 95 hrn 100 PAGENO=1
@conn
w 21
a 0 up 0:33 0 0 0 hln 100 V=
s 300 390 300 350 20
a 0 up 33 0 302 370 hlt 100 V=
s 300 350 320 350 23
w 73
a 0 up 0:33 0 0 0 hln 100 V=
s 390 250 370 250 72
a 0 up 33 0 380 249 hct 100 V=
w 27
a 0 up 0:33 0 0 0 hln 100 V=
s 260 400 260 420 29
s 260 420 300 420 26
s 370 400 370 420 32
s 300 420 370 420 78
a 0 up 33 0 335 419 hct 100 V=
w 125
a 0 up 0:33 0 0 0 hln 100 V=
s 260 260 330 260 140
a 0 up 33 0 295 259 hct 100 V=
s 300 340 300 290 68
s 370 290 370 300 53
s 320 340 300 340 62
s 370 290 330 290 56
s 330 290 300 290 152
s 330 260 330 290 142
w 6
a 0 up 0:33 0 0 0 hln 100 V=
s 310 330 320 330 50
s 310 330 310 360 126
s 310 360 320 360 128
s 260 350 260 360 14
s 260 360 260 370 132
s 310 360 260 360 130
s 210 350 210 360 153
s 210 360 260 360 160
a 0 up 33 0 235 359 hct 100 V=
w 54
a 0 up 0:33 0 0 0 hln 100 V=
s 260 310 280 310 133
s 280 310 280 370 135
a 0 up 33 0 282 340 hlt 100 V=
s 280 370 320 370 137
s 260 300 260 310 145
s 210 310 260 310 155
s 210 320 210 310 148
w 182
s 420 340 420 350 181
s 420 350 450 350 183
w 186
s 480 350 490 350 185
s 490 350 530 350 191
s 530 350 530 330 193
s 530 350 530 360 195
w 252
s 570 350 570 360 238
s 570 360 560 360 239
s 570 350 630 350 226
w 269
s 560 330 670 330 271
@junction
j 300 390
+ p 77 1
+ w 21
j 260 400
+ p 83 2
+ w 27
j 300 420
+ p 77 2
+ w 27
j 370 250
+ p 82 -
+ w 73
j 390 250
+ s 86
+ w 73
j 370 420
+ s 85
+ w 27
j 260 350
+ p 79 1
+ w 6
j 260 370
+ p 83 1
+ w 6
j 260 360
+ w 6
+ w 6
j 310 360
+ w 6
+ w 6
j 330 290
+ w 125
+ w 125
j 260 260
+ p 139 1
+ w 125
j 370 290
+ p 82 +
+ w 125
j 260 310
+ p 79 2
+ w 54
j 260 300
+ p 139 2
+ w 54
j 210 350
+ p 179 2
+ w 6
j 210 320
+ p 179 1
+ w 54
j 320 350
+ p 80 CONTROL
+ w 21
j 370 400
+ p 80 GND
+ w 27
j 320 340
+ p 80 RESET
+ w 125
j 370 300
+ p 80 VCC
+ w 125
j 320 330
+ p 80 TRIGGER
+ w 6
j 320 360
+ p 80 THRESHOLD
+ w 6
j 320 370
+ p 80 DISCHARGE
+ w 54
j 490 390
+ p 81 2
+ s 87
j 420 340
+ p 80 OUTPUT
+ w 182
j 490 350
+ p 81 1
+ w 186
j 450 350
+ p 180 1
+ w 182
j 480 350
+ p 180 2
+ w 186
j 530 350
+ w 186
+ w 186
j 530 330
+ p 265 1
+ w 186
j 530 360
+ p 266 2
+ w 186
j 560 330
+ p 265 2
+ w 269
j 560 360
+ p 266 1
+ w 252
@attributes
a 0 s 0 0 0 0 hln 100 PAGETITLE=
a 0 s 0 0 0 0 hln 100 PAGENO=1
a 0 s 0 0 0 0 hln 100 PAGESIZE=A
a 0 s 0 0 0 0 hln 100 PAGECOUNT=1
@graphics
t 0 t 5 160 508 471 526 0 51
IC-555 AS ASTABLE MULTIVIBRATOR WITH 50% DUTY CYCLE
